psse_raw/RTS_30.raw
0,   100.00, 30, 0, 1,  60.00     / PSS(R)E 30 RAW created by rawd30  MON, NOV 28 2022  14:56


   101,'ABEL        ', 138.0000,2,     0.000,     0.000,   1,  11,1.04777,  -7.7415,   1
   102,'ADAMS       ', 138.0000,2,     0.000,     0.000,   1,  12,1.04783,  -7.8178,   1
   103,'ADLER       ', 138.0000,2,     0.000,     0.000,   1,  11,1.01085,  -7.2109,   1
   104,'AGRICOLA    ', 138.0000,2,     0.000,     0.000,   1,  11,1.01765, -10.5661,   1
   105,'AIKEN       ', 138.0000,1,     0.000,     0.000,   1,  11,1.03568, -10.7089,   1
   106,'ALBER       ', 138.0000,1,     0.000,     0.000,   1,  12,1.03242, -13.2794,   1
   107,'ALDER       ', 138.0000,2,     0.000,     0.000,   1,  12,1.03745, -11.2767,   1
   108,'ALGER       ', 138.0000,1,     0.000,     0.000,   1,  12,1.01024, -13.7497,   1
   109,'ALI         ', 138.0000,1,     0.000,     0.000,   1,  13,1.02610,  -8.8152,   1
   110,'ALLEN       ', 138.0000,1,     0.000,     0.000,   1,  13,1.05000, -10.6206,   1
   111,'ANNA        ', 230.0000,1,     0.000,     0.000,   1,  13,1.02764,  -3.9167,   1
   112,'ARCHER      ', 230.0000,1,     0.000,     0.000,   1,  13,1.02024,  -2.4242,   1
   113,'ARNE        ', 230.0000,3,     0.000,     0.000,   1,  14,1.03470,   0.0000,   1
   114,'ARNOLD      ', 230.0000,2,     0.000,     0.000,   1,  16,1.04401,  -1.7306,   1
   115,'ARTHUR      ', 230.0000,2,     0.000,     0.000,   1,  16,1.04335,   7.9597,   1
   116,'ASSER       ', 230.0000,2,     0.000,     0.000,   1,  16,1.04565,   7.5693,   1
   117,'ASTON       ', 230.0000,1,     0.000,     0.000,   1,  17,1.04783,  11.4342,   1
   118,'ASTOR       ', 230.0000,2,     0.000,     0.000,   1,  17,1.05000,  12.5246,   1
   119,'ATTAR       ', 230.0000,2,     0.000,     0.000,   1,  15,1.03962,   6.6578,   1
   120,'ATTILA      ', 230.0000,1,     0.000,     0.000,   1,  15,1.04399,   7.7406,   1
   121,'ATTLEE      ', 230.0000,2,     0.000,     0.000,   1,  17,1.05000,  13.0865,   1
   122,'AUBREY      ', 230.0000,2,     0.000,     0.000,   1,  17,1.05000,  18.9498,   1
   123,'AUSTEN      ', 230.0000,2,     0.000,     0.000,   1,  15,1.05000,   9.0562,   1
   124,'AVERY       ', 230.0000,1,     0.000,     0.000,   1,  16,1.01155,   2.3834,   1
   201,'BACH        ', 138.0000,2,     0.000,     0.000,   2,  21,1.04841, -10.6897,   1
   202,'BACON       ', 138.0000,2,     0.000,     0.000,   2,  22,1.04844, -10.7591,   1
   203,'BAFFIN      ', 138.0000,1,     0.000,     0.000,   2,  21,1.01886, -10.4745,   1
   204,'BAILEY      ', 138.0000,1,     0.000,     0.000,   2,  21,1.01890, -13.4848,   1
   205,'BAIN        ', 138.0000,1,     0.000,     0.000,   2,  21,1.03603, -13.6119,   1
   206,'BAJER       ', 138.0000,1,     0.000,     0.000,   2,  22,1.03259, -16.1567,   1
   207,'BAKER       ', 138.0000,2,     0.000,     0.000,   2,  22,1.03973, -13.4661,   1
   208,'BALCH       ', 138.0000,1,     0.000,     0.000,   2,  22,1.01203, -16.2236,   1
   209,'BALZAC      ', 138.0000,1,     0.000,     0.000,   2,  23,1.02781, -11.7241,   1
   210,'BANKS       ', 138.0000,1,     0.000,     0.000,   2,  23,1.05000, -13.4799,   1
   211,'BARDEEN     ', 230.0000,1,     0.000,     0.000,   2,  23,1.02735,  -6.9334,   1
   212,'BARKLA      ', 230.0000,2,     0.000,     0.000,   2,  23,1.01921,  -5.2533,   1
   213,'BARLOW      ', 230.0000,2,     0.000,     0.000,   2,  24,1.03752,  -3.2151,   1
   214,'BARRY       ', 230.0000,2,     0.000,     0.000,   2,  26,1.04335,  -4.6852,   1
   215,'BARTON      ', 230.0000,2,     0.000,     0.000,   2,  26,1.04327,   4.6335,   1
   216,'BASOV       ', 230.0000,2,     0.000,     0.000,   2,  26,1.04556,   4.7001,   1
   217,'BATES       ', 230.0000,1,     0.000,     0.000,   2,  27,1.04847,   8.8184,   1
   218,'BAYLE       ', 230.0000,2,     0.000,     0.000,   2,  27,1.05000,   9.9947,   1
   219,'BEDE        ', 230.0000,1,     0.000,     0.000,   2,  25,1.03946,   4.2123,   1
   220,'BEETHOVEN   ', 230.0000,1,     0.000,     0.000,   2,  25,1.04380,   5.6645,   1
   221,'BEHRING     ', 230.0000,2,     0.000,     0.000,   2,  27,1.05000,  10.6321,   1
   222,'BELL        ', 230.0000,2,     0.000,     0.000,   2,  27,1.05000,  16.4320,   1
   223,'BLOCH       ', 230.0000,2,     0.000,     0.000,   2,  25,1.05000,   7.1815,   1
   224,'BORDET      ', 230.0000,1,     0.000,     0.000,   2,  26,1.01456,  -0.9600,   1
   301,'CABELL      ', 138.0000,2,     0.000,     0.000,   3,  31,1.04860,  -9.3482,   1
   302,'CABOT       ', 138.0000,2,     0.000,     0.000,   3,  32,1.04864,  -9.4310,   1
   303,'CAESAR      ', 138.0000,2,     0.000,     0.000,   3,  31,1.01045,  -8.5769,   1
   304,'CAINE       ', 138.0000,1,     0.000,     0.000,   3,  31,1.01785, -12.1878,   1
   305,'CALVIN      ', 138.0000,1,     0.000,     0.000,   3,  31,1.03609, -12.3500,   1
   306,'CAMUS       ', 138.0000,1,     0.000,     0.000,   3,  32,1.03260, -14.9420,   1
   307,'CAREW       ', 138.0000,2,     0.000,     0.000,   3,  32,1.03804, -12.5479,   1
   308,'CARREL      ', 138.0000,2,     0.000,     0.000,   3,  32,1.01056, -15.1829,   1
   309,'CARTER      ', 138.0000,2,     0.000,     0.000,   3,  33,1.02579, -10.4462,   1
   310,'CARUSO      ', 138.0000,2,     0.000,     0.000,   3,  33,1.05000, -12.3012,   1
   311,'CARY        ', 230.0000,1,     0.000,     0.000,   3,  33,1.02830,  -5.7407,   1
   312,'CAXTON      ', 230.0000,2,     0.000,     0.000,   3,  33,1.01900,  -4.1460,   1
   313,'CECIL       ', 230.0000,2,     0.000,     0.000,   3,  34,1.03802,  -2.4151,   1
   314,'CHAIN       ', 230.0000,2,     0.000,     0.000,   3,  36,1.04631,  -3.2079,   1
   315,'CHASE       ', 230.0000,2,     0.000,     0.000,   3,  36,1.04300,   7.0509,   1
   316,'CHIFA       ', 230.0000,2,     0.000,     0.000,   3,  36,1.04558,   6.5987,   1
   317,'CHUHSI      ', 230.0000,2,     0.000,     0.000,   3,  37,1.04785,  10.3442,   1
   318,'CLARK       ', 230.0000,2,     0.000,     0.000,   3,  37,1.05000,  11.3426,   1
   319,'CLAY        ', 230.0000,2,     0.000,     0.000,   3,  35,1.03953,   5.9154,   1
   320,'CLIVE       ', 230.0000,2,     0.000,     0.000,   3,  35,1.04389,   7.1971,   1
   321,'COBB        ', 230.0000,2,     0.000,     0.000,   3,  37,1.05000,  12.3412,   1
   322,'COLE        ', 230.0000,2,     0.000,     0.000,   3,  37,1.05000,  18.0691,   1
   323,'COMTE       ', 230.0000,2,     0.000,     0.000,   3,  35,1.05000,   8.6211,   1
   324,'CURIE       ', 230.0000,2,     0.000,     0.000,   3,  36,1.01046,   1.3061,   1
   325,'CURTISS     ', 230.0000,1,     0.000,     0.000,   3,  35,1.04986,   8.9933,   1
 0 /End of Bus data, Begin Load data
   101,'1 ',1,   1,   1,   108.000,    22.000,     0.000,     0.000,     0.000,     0.000,   1
   102,'1 ',1,   1,   1,    97.000,    20.000,     0.000,     0.000,     0.000,     0.000,   1
   103,'1 ',1,   1,   1,   180.000,    37.000,     0.000,     0.000,     0.000,     0.000,   1
   104,'1 ',1,   1,   1,    74.000,    15.000,     0.000,     0.000,     0.000,     0.000,   1
   105,'1 ',1,   1,   1,    71.000,    14.000,     0.000,     0.000,     0.000,     0.000,   1
   106,'1 ',1,   1,   1,   136.000,    28.000,     0.000,     0.000,     0.000,     0.000,   1
   107,'1 ',1,   1,   1,   125.000,    25.000,     0.000,     0.000,     0.000,     0.000,   1
   108,'1 ',1,   1,   1,   171.000,    35.000,     0.000,     0.000,     0.000,     0.000,   1
   109,'1 ',1,   1,   1,   175.000,    36.000,     0.000,     0.000,     0.000,     0.000,   1
   110,'1 ',1,   1,   1,   195.000,    40.000,     0.000,     0.000,     0.000,     0.000,   1
   113,'1 ',1,   1,   1,   265.000,    54.000,     0.000,     0.000,     0.000,     0.000,   1
   114,'1 ',1,   1,   1,   194.000,    39.000,     0.000,     0.000,     0.000,     0.000,   1
   115,'1 ',1,   1,   1,   317.000,    64.000,     0.000,     0.000,     0.000,     0.000,   1
   116,'1 ',1,   1,   1,   100.000,    20.000,     0.000,     0.000,     0.000,     0.000,   1
   118,'1 ',1,   1,   1,   333.000,    68.000,     0.000,     0.000,     0.000,     0.000,   1
   119,'1 ',1,   1,   1,   181.000,    37.000,     0.000,     0.000,     0.000,     0.000,   1
   120,'1 ',1,   1,   1,   128.000,    26.000,     0.000,     0.000,     0.000,     0.000,   1
   201,'1 ',1,   2,   1,   108.000,    22.000,     0.000,     0.000,     0.000,     0.000,   1
   202,'1 ',1,   2,   1,    97.000,    20.000,     0.000,     0.000,     0.000,     0.000,   1
   203,'1 ',1,   2,   1,   180.000,    37.000,     0.000,     0.000,     0.000,     0.000,   1
   204,'1 ',1,   2,   1,    74.000,    15.000,     0.000,     0.000,     0.000,     0.000,   1
   205,'1 ',1,   2,   1,    71.000,    14.000,     0.000,     0.000,     0.000,     0.000,   1
   206,'1 ',1,   2,   1,   136.000,    28.000,     0.000,     0.000,     0.000,     0.000,   1
   207,'1 ',1,   2,   1,   125.000,    25.000,     0.000,     0.000,     0.000,     0.000,   1
   208,'1 ',1,   2,   1,   171.000,    35.000,     0.000,     0.000,     0.000,     0.000,   1
   209,'1 ',1,   2,   1,   175.000,    36.000,     0.000,     0.000,     0.000,     0.000,   1
   210,'1 ',1,   2,   1,   195.000,    40.000,     0.000,     0.000,     0.000,     0.000,   1
   213,'1 ',1,   2,   1,   265.000,    54.000,     0.000,     0.000,     0.000,     0.000,   1
   214,'1 ',1,   2,   1,   194.000,    39.000,     0.000,     0.000,     0.000,     0.000,   1
   215,'1 ',1,   2,   1,   317.000,    64.000,     0.000,     0.000,     0.000,     0.000,   1
   216,'1 ',1,   2,   1,   100.000,    20.000,     0.000,     0.000,     0.000,     0.000,   1
   218,'1 ',1,   2,   1,   333.000,    68.000,     0.000,     0.000,     0.000,     0.000,   1
   219,'1 ',1,   2,   1,   181.000,    37.000,     0.000,     0.000,     0.000,     0.000,   1
   220,'1 ',1,   2,   1,   128.000,    26.000,     0.000,     0.000,     0.000,     0.000,   1
   301,'1 ',1,   3,   1,   108.000,    22.000,     0.000,     0.000,     0.000,     0.000,   1
   302,'1 ',1,   3,   1,    97.000,    20.000,     0.000,     0.000,     0.000,     0.000,   1
   303,'1 ',1,   3,   1,   180.000,    37.000,     0.000,     0.000,     0.000,     0.000,   1
   304,'1 ',1,   3,   1,    74.000,    15.000,     0.000,     0.000,     0.000,     0.000,   1
   305,'1 ',1,   3,   1,    71.000,    14.000,     0.000,     0.000,     0.000,     0.000,   1
   306,'1 ',1,   3,   1,   136.000,    28.000,     0.000,     0.000,     0.000,     0.000,   1
   307,'1 ',1,   3,   1,   125.000,    25.000,     0.000,     0.000,     0.000,     0.000,   1
   308,'1 ',1,   3,   1,   171.000,    35.000,     0.000,     0.000,     0.000,     0.000,   1
   309,'1 ',1,   3,   1,   175.000,    36.000,     0.000,     0.000,     0.000,     0.000,   1
   310,'1 ',1,   3,   1,   195.000,    40.000,     0.000,     0.000,     0.000,     0.000,   1
   313,'1 ',1,   3,   1,   265.000,    54.000,     0.000,     0.000,     0.000,     0.000,   1
   314,'1 ',1,   3,   1,   194.000,    39.000,     0.000,     0.000,     0.000,     0.000,   1
   315,'1 ',1,   3,   1,   317.000,    64.000,     0.000,     0.000,     0.000,     0.000,   1
   316,'1 ',1,   3,   1,   100.000,    20.000,     0.000,     0.000,     0.000,     0.000,   1
   318,'1 ',1,   3,   1,   333.000,    68.000,     0.000,     0.000,     0.000,     0.000,   1
   319,'1 ',1,   3,   1,   181.000,    37.000,     0.000,     0.000,     0.000,     0.000,   1
   320,'1 ',1,   3,   1,   128.000,    26.000,     0.000,     0.000,     0.000,     0.000,   1
 0 /End of Load data, Begin Generator data
   101,'1 ',     8.000,     4.960,    10.000,     0.000,1.00000,     0,   100.000,   0.00000,   1.00000,   0.00000,   0.00000,1.00000,1,  100.0,    20.000,     8.000,   1,1.0000
   101,'2 ',     8.000,     4.960,    10.000,     0.000,1.00000,     0,   100.000,   0.00000,   1.00000,   0.00000,   0.00000,1.00000,1,  100.0,    20.000,     8.000,   1,1.0000
   101,'3 ',    76.000,     0.140,    30.000,   -25.000,1.00000,     0,   100.000,   0.00000,   1.00000,   0.00000,   0.00000,1.00000,1,  100.0,    76.000,    30.000,   1,1.0000
   101,'4 ',    76.000,     0.140,    30.000,   -25.000,1.00000,     0,   100.000,   0.00000,   1.00000,   0.00000,   0.00000,1.00000,1,  100.0,    76.000,    30.000,   1,1.0000
   101,'5 ',     0.000,     0.000,     0.000,     0.000,1.00000,     0,   100.000,   0.00000,   1.00000,   0.00000,   0.00000,1.00000,0,  100.0,    25.900,     0.000,   1,1.0000
   101,'6 ',     0.000,     0.000,     0.000,     0.000,1.00000,     0,   100.000,   0.00000,   1.00000,   0.00000,   0.00000,1.00000,0,  100.0,    26.700,     0.000,   1,1.0000
   101,'7 ',     0.000,     0.000,     0.000,     0.000,1.00000,     0,   100.000,   0.00000,   1.00000,   0.00000,   0.00000,1.00000,0,  100.0,    26.200,     0.000,   1,1.0000
   101,'8 ',     0.000,     0.000,     0.000,     0.000,1.00000,     0,   100.000,   0.00000,   1.00000,   0.00000,   0.00000,1.00000,0,  100.0,    25.800,     0.000,   1,1.0000
   102,'1 ',     8.000,     4.880,    10.000,     0.000,1.00000,     0,   100.000,   0.00000,   1.00000,   0.00000,   0.00000,1.00000,1,  100.0,    20.000,     8.000,   1,1.0000
   102,'2 ',     8.000,     4.880,    10.000,     0.000,1.00000,     0,   100.000,   0.00000,   1.00000,   0.00000,   0.00000,1.00000,1,  100.0,    20.000,     8.000,   1,1.0000
   102,'3 ',    76.000,    -2.310,    30.000,   -25.000,1.00000,     0,   100.000,   0.00000,   1.00000,   0.00000,   0.00000,1.00000,1,  100.0,    76.000,    30.000,   1,1.0000
   102,'4 ',    76.000,    -2.310,    30.000,   -25.000,1.00000,     0,   100.000,   0.00000,   1.00000,   0.00000,   0.00000,1.00000,1,  100.0,    76.000,    30.000,   1,1.0000
   102,'5 ',     0.000,     0.000,     0.000,     0.000,1.00000,     0,   100.000,   0.00000,   1.00000,   0.00000,   0.00000,1.00000,0,  100.0,    25.600,     0.000,   1,1.0000
   102,'6 ',     0.000,     0.000,     0.000,     0.000,1.00000,     0,   100.000,   0.00000,   1.00000,   0.00000,   0.00000,1.00000,0,  100.0,    25.300,     0.000,   1,1.0000
   103,'1 ',     0.000,     0.000,     0.000,     0.000,1.00000,     0,   100.000,   0.00000,   1.00000,   0.00000,   0.00000,1.00000,0,  100.0,    61.500,     0.000,   1,1.0000
   104,'1 ',     0.000,     0.000,     0.000,     0.000,1.00000,     0,   100.000,   0.00000,   1.00000,   0.00000,   0.00000,1.00000,0,  100.0,    26.800,     0.000,   1,1.0000
   107,'1 ',   355.000,    49.510,   150.000,   -25.000,1.05000,     0,   100.000,   0.00000,   1.00000,   0.00000,   0.00000,1.00000,1,  100.0,   355.000,   170.000,   1,1.0000
   113,'1 ',    55.000,    19.000,    19.000,   -15.000,1.03470,     0,   100.000,   0.00000,   1.00000,   0.00000,   0.00000,1.00000,1,  100.0,    55.000,    22.000,   1,1.0000
   113,'2 ',    55.000,    19.000,    19.000,   -15.000,1.03470,     0,   100.000,   0.00000,   1.00000,   0.00000,   0.00000,1.00000,1,  100.0,    55.000,    22.000,   1,1.0000
   113,'3 ',    55.000,    19.000,    19.000,   -15.000,1.03470,     0,   100.000,   0.00000,   1.00000,   0.00000,   0.00000,1.00000,1,  100.0,    55.000,    22.000,   1,1.0000
   113,'4 ',    55.000,    19.000,    19.000,   -15.000,1.03470,     0,   100.000,   0.00000,   1.00000,   0.00000,   0.00000,1.00000,1,  100.0,    55.000,    22.000,   1,1.0000
   113,'5 ',     0.000,     0.000,     0.000,     0.000,1.03470,     0,   100.000,   0.00000,   1.00000,   0.00000,   0.00000,1.00000,0,  100.0,    93.600,     0.000,   1,1.0000
   113,'DC',     0.000,     0.000,     0.000,     0.000,1.03470,     0,   100.000,   0.00000,   1.00000,   0.00000,   0.00000,1.00000,1,  100.0,     0.000,     0.000,   1,1.0000
   114,'1 ',     0.000,   103.320,   200.000,   -50.000,1.04410,     0,   100.000,   0.00000,   1.00000,   0.00000,   0.00000,1.00000,1,  100.0,     0.000,     0.000,   1,1.0000
   115,'1 ',     5.000,     6.000,     6.000,     0.000,1.04280,     0,   100.000,   0.00000,   1.00000,   0.00000,   0.00000,1.00000,1,  100.0,    12.000,     5.000,   1,1.0000
   115,'2 ',     5.000,     6.000,     6.000,     0.000,1.04280,     0,   100.000,   0.00000,   1.00000,   0.00000,   0.00000,1.00000,1,  100.0,    12.000,     5.000,   1,1.0000
   115,'3 ',   155.000,    80.000,    80.000,   -50.000,1.04280,     0,   100.000,   0.00000,   1.00000,   0.00000,   0.00000,1.00000,1,  100.0,   155.000,    62.000,   1,1.0000
   116,'1 ',   155.000,    80.000,    80.000,   -50.000,1.04610,     0,   100.000,   0.00000,   1.00000,   0.00000,   0.00000,1.00000,1,  100.0,   155.000,    62.000,   1,1.0000
   118,'1 ',   355.000,    68.430,   150.000,   -25.000,1.00000,     0,   100.000,   0.00000,   1.00000,   0.00000,   0.00000,1.00000,1,  100.0,   355.000,   170.000,   1,1.0000
   118,'2 ',     0.000,     0.000,     0.000,     0.000,1.00000,     0,   100.000,   0.00000,   1.00000,   0.00000,   0.00000,1.00000,0,  100.0,     9.300,     0.000,   1,1.0000
   118,'3 ',     0.000,     0.000,     0.000,     0.000,1.00000,     0,   100.000,   0.00000,   1.00000,   0.00000,   0.00000,1.00000,0,  100.0,     9.700,     0.000,   1,1.0000
   118,'4 ',     0.000,     0.000,     0.000,     0.000,1.00000,     0,   100.000,   0.00000,   1.00000,   0.00000,   0.00000,1.00000,0,  100.0,     9.400,     0.000,   1,1.0000
   118,'5 ',     0.000,     0.000,     0.000,     0.000,1.00000,     0,   100.000,   0.00000,   1.00000,   0.00000,   0.00000,1.00000,0,  100.0,     9.100,     0.000,   1,1.0000
   118,'6 ',     0.000,     0.000,     0.000,     0.000,1.00000,     0,   100.000,   0.00000,   1.00000,   0.00000,   0.00000,1.00000,0,  100.0,     9.100,     0.000,   1,1.0000
   118,'7 ',     0.000,     0.000,     0.000,     0.000,1.00000,     0,   100.000,   0.00000,   1.00000,   0.00000,   0.00000,1.00000,0,  100.0,     9.700,     0.000,   1,1.0000
   118,'8 ',     0.000,     0.000,     0.000,     0.000,1.00000,     0,   100.000,   0.00000,   1.00000,   0.00000,   0.00000,1.00000,0,  100.0,    11.800,     0.000,   1,1.0000
   118,'9 ',     0.000,     0.000,     0.000,     0.000,1.00000,     0,   100.000,   0.00000,   1.00000,   0.00000,   0.00000,1.00000,0,  100.0,    11.200,     0.000,   1,1.0000
   118,'A ',     0.000,     0.000,     0.000,     0.000,1.00000,     0,   100.000,   0.00000,   1.00000,   0.00000,   0.00000,1.00000,0,  100.0,    10.300,     0.000,   1,1.0000
   118,'B ',     0.000,     0.000,     0.000,     0.000,1.00000,     0,   100.000,   0.00000,   1.00000,   0.00000,   0.00000,1.00000,0,  100.0,     4.500,     0.000,   1,1.0000
   119,'1 ',     0.000,     0.000,     0.000,     0.000,1.00000,     0,   100.000,   0.00000,   1.00000,   0.00000,   0.00000,1.00000,0,  100.0,    66.600,     0.000,   1,1.0000
   121,'1 ',   400.000,   -21.870,   200.000,   -50.000,1.05000,     0,   100.000,   0.00000,   1.00000,   0.00000,   0.00000,1.00000,1,  100.0,   400.000,   396.000,   1,1.0000
   122,'1 ',    50.000,    -6.790,    16.000,   -10.000,1.00000,     0,   100.000,   0.00000,   1.00000,   0.00000,   0.00000,1.00000,1,  100.0,    50.000,     0.000,   1,1.0000
   122,'2 ',    50.000,    -6.790,    16.000,   -10.000,1.00000,     0,   100.000,   0.00000,   1.00000,   0.00000,   0.00000,1.00000,1,  100.0,    50.000,     0.000,   1,1.0000
   122,'3 ',    50.000,    -6.790,    16.000,   -10.000,1.00000,     0,   100.000,   0.00000,   1.00000,   0.00000,   0.00000,1.00000,1,  100.0,    50.000,     0.000,   1,1.0000
   122,'4 ',    50.000,    -6.790,    16.000,   -10.000,1.00000,     0,   100.000,   0.00000,   1.00000,   0.00000,   0.00000,1.00000,1,  100.0,    50.000,     0.000,   1,1.0000
   122,'5 ',    50.000,    -6.790,    16.000,   -10.000,1.00000,     0,   100.000,   0.00000,   1.00000,   0.00000,   0.00000,1.00000,1,  100.0,    50.000,     0.000,   1,1.0000
   122,'6 ',    50.000,    -6.790,    16.000,   -10.000,1.00000,     0,   100.000,   0.00000,   1.00000,   0.00000,   0.00000,1.00000,1,  100.0,    50.000,     0.000,   1,1.0000
   122,'7 ',     0.000,     0.000,     0.000,     0.000,1.00000,     0,   100.000,   0.00000,   1.00000,   0.00000,   0.00000,1.00000,0,  100.0,   713.500,     0.000,   1,1.0000
   123,'1 ',   155.000,    -5.190,    80.000,   -50.000,1.05000,     0,   100.000,   0.00000,   1.00000,   0.00000,   0.00000,1.00000,1,  100.0,   155.000,    62.000,   1,1.0000
   123,'2 ',   350.000,    28.410,   150.000,   -25.000,1.05000,     0,   100.000,   0.00000,   1.00000,   0.00000,   0.00000,1.00000,1,  100.0,   350.000,   140.000,   1,1.0000
   123,'3 ',    55.000,     0.620,    19.000,   -15.000,1.05000,     0,   100.000,   0.00000,   1.00000,   0.00000,   0.00000,1.00000,1,  100.0,    55.000,    22.000,   1,1.0000
   123,'4 ',    55.000,     0.620,    19.000,   -15.000,1.05000,     0,   100.000,   0.00000,   1.00000,   0.00000,   0.00000,1.00000,1,  100.0,    55.000,    22.000,   1,1.0000
   123,'5 ',    55.000,     0.620,    19.000,   -15.000,1.05000,     0,   100.000,   0.00000,   1.00000,   0.00000,   0.00000,1.00000,1,  100.0,    55.000,    22.000,   1,1.0000
   201,'1 ',     8.000,     5.290,    10.000,     0.000,1.05000,     0,   100.000,   0.00000,   1.00000,   0.00000,   0.00000,1.00000,1,  100.0,    20.000,     8.000,   1,1.0000
   201,'2 ',     8.000,     5.290,    10.000,     0.000,1.05000,     0,   100.000,   0.00000,   1.00000,   0.00000,   0.00000,1.00000,1,  100.0,    20.000,     8.000,   1,1.0000
   201,'3 ',    76.000,     6.990,    30.000,   -25.000,1.05000,     0,   100.000,   0.00000,   1.00000,   0.00000,   0.00000,1.00000,1,  100.0,    76.000,    30.000,   1,1.0000
   201,'4 ',    50.000,     4.150,    16.000,   -10.000,1.05000,     0,   100.000,   0.00000,   1.00000,   0.00000,   0.00000,1.00000,1,  100.0,    50.000,     0.000,   1,1.0000
   202,'1 ',     8.000,     5.130,    10.000,     0.000,1.05000,     0,   100.000,   0.00000,   1.00000,   0.00000,   0.00000,1.00000,1,  100.0,    20.000,     8.000,   1,1.0000
   202,'2 ',     8.000,     5.130,    10.000,     0.000,1.05000,     0,   100.000,   0.00000,   1.00000,   0.00000,   0.00000,1.00000,1,  100.0,    20.000,     8.000,   1,1.0000
   202,'3 ',    76.000,     2.010,    30.000,   -25.000,1.05000,     0,   100.000,   0.00000,   1.00000,   0.00000,   0.00000,1.00000,1,  100.0,    76.000,    30.000,   1,1.0000
   202,'4 ',    76.000,     2.010,    30.000,   -25.000,1.05000,     0,   100.000,   0.00000,   1.00000,   0.00000,   0.00000,1.00000,1,  100.0,    76.000,    30.000,   1,1.0000
   207,'1 ',    55.000,    19.000,    19.000,   -15.000,0.96990,     0,   100.000,   0.00000,   1.00000,   0.00000,   0.00000,1.00000,1,  100.0,    55.000,    22.000,   1,1.0000
   207,'2 ',    55.000,    19.000,    19.000,   -15.000,0.96990,     0,   100.000,   0.00000,   1.00000,   0.00000,   0.00000,1.00000,1,  100.0,    55.000,    22.000,   1,1.0000
   212,'1 ',     0.000,     0.000,     0.000,     0.000,1.00000,     0,   100.000,   0.00000,   1.00000,   0.00000,   0.00000,1.00000,0,  100.0,   200.000,    30.000,   1,1.0000
   213,'1 ',   355.000,   135.800,   150.000,   -25.000,1.00000,     0,   100.000,   0.00000,   1.00000,   0.00000,   0.00000,1.00000,1,  100.0,   355.000,   170.000,   1,1.0000
   213,'2 ',    55.000,     9.230,    19.000,   -15.000,1.00000,     0,   100.000,   0.00000,   1.00000,   0.00000,   0.00000,1.00000,1,  100.0,    55.000,    22.000,   1,1.0000
   213,'3 ',    55.000,     9.230,    19.000,   -15.000,1.00000,     0,   100.000,   0.00000,   1.00000,   0.00000,   0.00000,1.00000,1,  100.0,    55.000,    22.000,   1,1.0000
   213,'4 ',     0.000,     0.000,     0.000,     0.000,1.00000,     0,   100.000,   0.00000,   1.00000,   0.00000,   0.00000,1.00000,0,  100.0,    13.200,     0.000,   1,1.0000
   214,'1 ',     0.000,   125.280,   200.000,   -50.000,1.05000,     0,   100.000,   0.00000,   1.00000,   0.00000,   0.00000,1.00000,1,  100.0,     0.000,     0.000,   1,1.0000
   215,'1 ',    55.000,    19.000,    19.000,   -15.000,1.00000,     0,   100.000,   0.00000,   1.00000,   0.00000,   0.00000,1.00000,1,  100.0,    55.000,    22.000,   1,1.0000
   215,'2 ',    55.000,    19.000,    19.000,   -15.000,1.00000,     0,   100.000,   0.00000,   1.00000,   0.00000,   0.00000,1.00000,1,  100.0,    55.000,    22.000,   1,1.0000
   215,'3 ',    50.000,    16.000,    16.000,   -10.000,1.00000,     0,   100.000,   0.00000,   1.00000,   0.00000,   0.00000,1.00000,1,  100.0,    50.000,     0.000,   1,1.0000
   215,'4 ',    50.000,    16.000,    16.000,   -10.000,1.00000,     0,   100.000,   0.00000,   1.00000,   0.00000,   0.00000,1.00000,1,  100.0,    50.000,     0.000,   1,1.0000
   215,'5 ',    50.000,    16.000,    16.000,   -10.000,1.00000,     0,   100.000,   0.00000,   1.00000,   0.00000,   0.00000,1.00000,1,  100.0,    50.000,     0.000,   1,1.0000
   215,'6 ',     0.000,     0.000,     0.000,     0.000,1.00000,     0,   100.000,   0.00000,   1.00000,   0.00000,   0.00000,1.00000,0,  100.0,   125.100,     0.000,   1,1.0000
   216,'1 ',   155.000,    80.000,    80.000,   -50.000,1.04730,     0,   100.000,   0.00000,   1.00000,   0.00000,   0.00000,1.00000,1,  100.0,   155.000,    62.000,   1,1.0000
   218,'1 ',   355.000,    60.300,   150.000,   -25.000,1.05000,     0,   100.000,   0.00000,   1.00000,   0.00000,   0.00000,1.00000,1,  100.0,   355.000,   170.000,   1,1.0000
   221,'1 ',   296.970,    -7.520,   150.000,   -25.000,1.05000,     0,   100.000,   0.00000,   1.00000,   0.00000,   0.00000,1.00000,1,  100.0,   355.000,   170.000,   1,1.0000
   222,'1 ',    50.000,    -6.970,    16.000,   -10.000,1.05000,     0,   100.000,   0.00000,   1.00000,   0.00000,   0.00000,1.00000,1,  100.0,    50.000,     0.000,   1,1.0000
   222,'2 ',    50.000,    -6.970,    16.000,   -10.000,1.05000,     0,   100.000,   0.00000,   1.00000,   0.00000,   0.00000,1.00000,1,  100.0,    50.000,     0.000,   1,1.0000
   222,'3 ',    50.000,    -6.970,    16.000,   -10.000,1.05000,     0,   100.000,   0.00000,   1.00000,   0.00000,   0.00000,1.00000,1,  100.0,    50.000,     0.000,   1,1.0000
   222,'4 ',    50.000,    -6.970,    16.000,   -10.000,1.05000,     0,   100.000,   0.00000,   1.00000,   0.00000,   0.00000,1.00000,1,  100.0,    50.000,     0.000,   1,1.0000
   222,'5 ',    50.000,    -6.970,    16.000,   -10.000,1.05000,     0,   100.000,   0.00000,   1.00000,   0.00000,   0.00000,1.00000,1,  100.0,    50.000,     0.000,   1,1.0000
   222,'6 ',    50.000,    -6.970,    16.000,   -10.000,1.05000,     0,   100.000,   0.00000,   1.00000,   0.00000,   0.00000,1.00000,1,  100.0,    50.000,     0.000,   1,1.0000
   223,'1 ',   155.000,   -10.310,    80.000,   -50.000,1.05000,     0,   100.000,   0.00000,   1.00000,   0.00000,   0.00000,1.00000,1,  100.0,   155.000,    62.000,   1,1.0000
   223,'2 ',   155.000,   -10.310,    80.000,   -50.000,1.05000,     0,   100.000,   0.00000,   1.00000,   0.00000,   0.00000,1.00000,1,  100.0,   155.000,    62.000,   1,1.0000
   223,'3 ',   350.000,    20.590,   150.000,   -25.000,1.05000,     0,   100.000,   0.00000,   1.00000,   0.00000,   0.00000,1.00000,1,  100.0,   350.000,   140.000,   1,1.0000
   223,'4 ',    22.000,     0.240,    19.000,   -15.000,1.05000,     0,   100.000,   0.00000,   1.00000,   0.00000,   0.00000,1.00000,1,  100.0,    55.000,    22.000,   1,1.0000
   223,'5 ',    22.000,     0.240,    19.000,   -15.000,1.05000,     0,   100.000,   0.00000,   1.00000,   0.00000,   0.00000,1.00000,1,  100.0,    55.000,    22.000,   1,1.0000
   223,'6 ',    22.000,     0.240,    19.000,   -15.000,1.05000,     0,   100.000,   0.00000,   1.00000,   0.00000,   0.00000,1.00000,1,  100.0,    55.000,    22.000,   1,1.0000
   301,'1 ',     8.000,     7.950,    10.000,     0.000,1.05000,     0,   100.000,   0.00000,   1.00000,   0.00000,   0.00000,1.00000,1,  100.0,    20.000,     8.000,   1,1.0000
   301,'2 ',     8.000,     7.950,    10.000,     0.000,1.05000,     0,   100.000,   0.00000,   1.00000,   0.00000,   0.00000,1.00000,1,  100.0,    20.000,     8.000,   1,1.0000
   301,'3 ',    44.000,    16.530,    19.000,   -15.000,1.05000,     0,   100.000,   0.00000,   1.00000,   0.00000,   0.00000,1.00000,1,  100.0,    55.000,    22.000,   1,1.0000
   301,'4 ',    44.000,    16.530,    19.000,   -15.000,1.05000,     0,   100.000,   0.00000,   1.00000,   0.00000,   0.00000,1.00000,1,  100.0,    55.000,    22.000,   1,1.0000
   302,'1 ',     8.000,     6.160,    10.000,     0.000,1.05000,     0,   100.000,   0.00000,   1.00000,   0.00000,   0.00000,1.00000,1,  100.0,    20.000,     8.000,   1,1.0000
   302,'2 ',     8.000,     6.160,    10.000,     0.000,1.05000,     0,   100.000,   0.00000,   1.00000,   0.00000,   0.00000,1.00000,1,  100.0,    20.000,     8.000,   1,1.0000
   302,'3 ',    55.000,    10.990,    19.000,   -15.000,1.05000,     0,   100.000,   0.00000,   1.00000,   0.00000,   0.00000,1.00000,1,  100.0,    55.000,    22.000,   1,1.0000
   302,'4 ',    55.000,    10.990,    19.000,   -15.000,1.05000,     0,   100.000,   0.00000,   1.00000,   0.00000,   0.00000,1.00000,1,  100.0,    55.000,    22.000,   1,1.0000
   303,'1 ',     0.000,     0.000,     0.000,     0.000,1.00000,     0,   100.000,   0.00000,   1.00000,   0.00000,   0.00000,1.00000,0,  100.0,   847.000,     0.000,   1,1.0000
   307,'1 ',    55.000,    19.000,    19.000,   -15.000,0.95680,     0,   100.000,   0.00000,   1.00000,   0.00000,   0.00000,1.00000,1,  100.0,    55.000,    22.000,   1,1.0000
   307,'2 ',    55.000,    19.000,    19.000,   -15.000,0.95680,     0,   100.000,   0.00000,   1.00000,   0.00000,   0.00000,1.00000,1,  100.0,    55.000,    22.000,   1,1.0000
   308,'1 ',     0.000,     0.000,     0.000,     0.000,1.00000,     0,   100.000,   0.00000,   1.00000,   0.00000,   0.00000,1.00000,0,  100.0,   100.900,     0.000,   1,1.0000
   309,'1 ',     0.000,     0.000,     0.000,     0.000,1.00000,     0,   100.000,   0.00000,   1.00000,   0.00000,   0.00000,1.00000,0,  100.0,   148.300,     0.000,   1,1.0000
   310,'1 ',     0.000,     0.000,     0.000,     0.000,1.00000,     0,   100.000,   0.00000,   1.00000,   0.00000,   0.00000,1.00000,0,  100.0,    51.700,     0.000,   1,1.0000
   310,'2 ',     0.000,     0.000,     0.000,     0.000,1.00000,     0,   100.000,   0.00000,   1.00000,   0.00000,   0.00000,1.00000,0,  100.0,    51.600,     0.000,   1,1.0000
   312,'1 ',     0.000,     0.000,     0.000,     0.000,1.00000,     0,   100.000,   0.00000,   1.00000,   0.00000,   0.00000,1.00000,0,  100.0,    94.100,     0.000,   1,1.0000
   313,'1 ',   355.000,   150.000,   150.000,   -25.000,1.00000,     0,   100.000,   0.00000,   1.00000,   0.00000,   0.00000,1.00000,1,  100.0,   355.000,   170.000,   1,1.0000
   313,'2 ',     0.000,     0.000,     0.000,     0.000,1.00000,     0,   100.000,   0.00000,   1.00000,   0.00000,   0.00000,1.00000,0,  100.0,    95.100,     0.000,   1,1.0000
   313,'3 ',     0.000,     0.000,     0.000,     0.000,1.00000,     0,   100.000,   0.00000,   1.00000,   0.00000,   0.00000,1.00000,0,  100.0,    93.300,     0.000,   1,1.0000
   313,'4 ',     0.000,     0.000,     0.000,     0.000,1.00000,     0,   100.000,   0.00000,   1.00000,   0.00000,   0.00000,1.00000,0,  100.0,   101.700,     0.000,   1,1.0000
   313,'5 ',     0.000,     0.000,     0.000,     0.000,1.00000,     0,   100.000,   0.00000,   1.00000,   0.00000,   0.00000,1.00000,0,  100.0,    63.100,     0.000,   1,1.0000
   313,'6 ',     0.000,     0.000,     0.000,     0.000,1.00000,     0,   100.000,   0.00000,   1.00000,   0.00000,   0.00000,1.00000,0,  100.0,    65.400,     0.000,   1,1.0000
   313,'7 ',     0.000,     0.000,     0.000,     0.000,1.00000,     0,   100.000,   0.00000,   1.00000,   0.00000,   0.00000,1.00000,0,  100.0,    67.000,     0.000,   1,1.0000
   313,'8 ',     0.000,     0.000,     0.000,     0.000,1.00000,     0,   100.000,   0.00000,   1.00000,   0.00000,   0.00000,1.00000,0,  100.0,    64.800,     0.000,   1,1.0000
   313,'9 ',     0.000,     0.000,     0.000,     0.000,1.00000,     0,   100.000,   0.00000,   1.00000,   0.00000,   0.00000,1.00000,0,  100.0,    63.800,     0.000,   1,1.0000
   313,'A ',     0.000,     0.000,     0.000,     0.000,1.00000,     0,   100.000,   0.00000,   1.00000,   0.00000,   0.00000,1.00000,0,  100.0,    64.100,     0.000,   1,1.0000
   313,'B ',     0.000,     0.000,     0.000,     0.000,1.00000,     0,   100.000,   0.00000,   1.00000,   0.00000,   0.00000,1.00000,0,  100.0,    66.600,     0.000,   1,1.0000
   313,'C ',     0.000,     0.000,     0.000,     0.000,1.00000,     0,   100.000,   0.00000,   1.00000,   0.00000,   0.00000,1.00000,0,  100.0,    62.400,     0.000,   1,1.0000
   313,'D ',     0.000,     0.000,     0.000,     0.000,1.00000,     0,   100.000,   0.00000,   1.00000,   0.00000,   0.00000,1.00000,0,  100.0,    66.900,     0.000,   1,1.0000
   313,'E ',     0.000,     0.000,     0.000,     0.000,1.00000,     0,   100.000,   0.00000,   1.00000,   0.00000,   0.00000,1.00000,0,  100.0,    65.200,     0.000,   1,1.0000
   313,'F ',     0.000,     0.000,     0.000,     0.000,1.00000,     0,   100.000,   0.00000,   1.00000,   0.00000,   0.00000,1.00000,0,  100.0,    27.800,     0.000,   1,1.0000
   313,'G ',     0.000,     0.000,     0.000,     0.000,1.00000,     0,   100.000,   0.00000,   1.00000,   0.00000,   0.00000,1.00000,0,  100.0,    27.200,     0.000,   1,1.0000
   313,'H ',     0.000,     0.000,     0.000,     0.000,1.00000,     0,   100.000,   0.00000,   1.00000,   0.00000,   0.00000,1.00000,0,  100.0,    50.000,     0.000,   1,1.0000
   314,'1 ',     0.000,   166.630,   200.000,   -50.000,1.00000,     0,   100.000,   0.00000,   1.00000,   0.00000,   0.00000,1.00000,1,  100.0,     0.000,     0.000,   1,1.0000
   314,'2 ',     0.000,     0.000,     0.000,     0.000,1.00000,     0,   100.000,   0.00000,   1.00000,   0.00000,   0.00000,1.00000,0,  100.0,    51.600,     0.000,   1,1.0000
   314,'3 ',     0.000,     0.000,     0.000,     0.000,1.00000,     0,   100.000,   0.00000,   1.00000,   0.00000,   0.00000,1.00000,0,  100.0,    51.600,     0.000,   1,1.0000
   314,'4 ',     0.000,     0.000,     0.000,     0.000,1.00000,     0,   100.000,   0.00000,   1.00000,   0.00000,   0.00000,1.00000,0,  100.0,    92.700,     0.000,   1,1.0000
   314,'5 ',     0.000,     0.000,     0.000,     0.000,1.00000,     0,   100.000,   0.00000,   1.00000,   0.00000,   0.00000,1.00000,0,  100.0,    51.600,     0.000,   1,1.0000
   315,'1 ',     5.000,     6.000,     6.000,     0.000,1.04220,     0,   100.000,   0.00000,   1.00000,   0.00000,   0.00000,1.00000,1,  100.0,    12.000,     5.000,   1,1.0000
   315,'2 ',     5.000,     6.000,     6.000,     0.000,1.04220,     0,   100.000,   0.00000,   1.00000,   0.00000,   0.00000,1.00000,1,  100.0,    12.000,     5.000,   1,1.0000
   315,'3 ',     5.000,     6.000,     6.000,     0.000,1.04220,     0,   100.000,   0.00000,   1.00000,   0.00000,   0.00000,1.00000,1,  100.0,    12.000,     5.000,   1,1.0000
   315,'4 ',     5.000,     6.000,     6.000,     0.000,1.04220,     0,   100.000,   0.00000,   1.00000,   0.00000,   0.00000,1.00000,1,  100.0,    12.000,     5.000,   1,1.0000
   315,'5 ',     5.000,     6.000,     6.000,     0.000,1.04220,     0,   100.000,   0.00000,   1.00000,   0.00000,   0.00000,1.00000,1,  100.0,    12.000,     5.000,   1,1.0000
   315,'6 ',    55.000,    19.000,    19.000,   -15.000,1.04220,     0,   100.000,   0.00000,   1.00000,   0.00000,   0.00000,1.00000,1,  100.0,    55.000,    22.000,   1,1.0000
   315,'7 ',    55.000,    19.000,    19.000,   -15.000,1.04220,     0,   100.000,   0.00000,   1.00000,   0.00000,   0.00000,1.00000,1,  100.0,    55.000,    22.000,   1,1.0000
   315,'8 ',    55.000,    60.000,    60.000,     0.000,1.04220,     0,   100.000,   0.00000,   1.00000,   0.00000,   0.00000,1.00000,1,  100.0,    55.000,    22.000,   1,1.0000
   316,'1 ',   155.000,    80.000,    80.000,   -50.000,1.04490,     0,   100.000,   0.00000,   1.00000,   0.00000,   0.00000,1.00000,1,  100.0,   155.000,    62.000,   1,1.0000
   316,'DC',     0.000,     0.000,     0.000,     0.000,1.04490,     0,   100.000,   0.00000,   1.00000,   0.00000,   0.00000,1.00000,1,  100.0,     0.000,     0.000,   1,1.0000
   317,'1 ',     0.000,     0.000,     0.000,     0.000,1.00000,     0,   100.000,   0.00000,   1.00000,   0.00000,   0.00000,1.00000,0,  100.0,   799.100,     0.000,   1,1.0000
   318,'1 ',   355.000,    63.120,   150.000,   -25.000,1.05000,     0,   100.000,   0.00000,   1.00000,   0.00000,   0.00000,1.00000,1,  100.0,   355.000,   170.000,   1,1.0000
   319,'1 ',     0.000,     0.000,     0.000,     0.000,1.00000,     0,   100.000,   0.00000,   1.00000,   0.00000,   0.00000,1.00000,0,  100.0,   188.200,     0.000,   1,1.0000
   320,'1 ',     0.000,     0.000,     0.000,     0.000,1.00000,     0,   100.000,   0.00000,   1.00000,   0.00000,   0.00000,1.00000,0,  100.0,    51.600,     0.000,   1,1.0000
   320,'2 ',     0.000,     0.000,     0.000,     0.000,1.00000,     0,   100.000,   0.00000,   1.00000,   0.00000,   0.00000,1.00000,0,  100.0,    27.300,     0.000,   1,1.0000
   320,'3 ',     0.000,     0.000,     0.000,     0.000,1.00000,     0,   100.000,   0.00000,   1.00000,   0.00000,   0.00000,1.00000,0,  100.0,    27.000,     0.000,   1,1.0000
   320,'4 ',     0.000,     0.000,     0.000,     0.000,1.00000,     0,   100.000,   0.00000,   1.00000,   0.00000,   0.00000,1.00000,0,  100.0,    28.300,     0.000,   1,1.0000
   320,'5 ',     0.000,     0.000,     0.000,     0.000,1.00000,     0,   100.000,   0.00000,   1.00000,   0.00000,   0.00000,1.00000,0,  100.0,    27.000,     0.000,   1,1.0000
   320,'6 ',     0.000,     0.000,     0.000,     0.000,1.00000,     0,   100.000,   0.00000,   1.00000,   0.00000,   0.00000,1.00000,0,  100.0,    28.200,     0.000,   1,1.0000
   320,'7 ',     0.000,     0.000,     0.000,     0.000,1.00000,     0,   100.000,   0.00000,   1.00000,   0.00000,   0.00000,1.00000,0,  100.0,     9.400,     0.000,   1,1.0000
   321,'1 ',   355.000,    -3.340,   150.000,   -25.000,1.05000,     0,   100.000,   0.00000,   1.00000,   0.00000,   0.00000,1.00000,1,  100.0,   355.000,   170.000,   1,1.0000
   322,'1 ',    55.000,    -9.730,    19.000,   -15.000,1.05000,     0,   100.000,   0.00000,   1.00000,   0.00000,   0.00000,1.00000,1,  100.0,    55.000,    22.000,   1,1.0000
   322,'2 ',    55.000,    -9.730,    19.000,   -15.000,1.05000,     0,   100.000,   0.00000,   1.00000,   0.00000,   0.00000,1.00000,1,  100.0,    55.000,    22.000,   1,1.0000
   322,'3 ',    50.000,    -5.130,    16.000,   -10.000,1.05000,     0,   100.000,   0.00000,   1.00000,   0.00000,   0.00000,1.00000,1,  100.0,    50.000,     0.000,   1,1.0000
   322,'4 ',    50.000,    -5.130,    16.000,   -10.000,1.05000,     0,   100.000,   0.00000,   1.00000,   0.00000,   0.00000,1.00000,1,  100.0,    50.000,     0.000,   1,1.0000
   322,'5 ',    50.000,    -5.130,    16.000,   -10.000,1.05000,     0,   100.000,   0.00000,   1.00000,   0.00000,   0.00000,1.00000,1,  100.0,    50.000,     0.000,   1,1.0000
   322,'6 ',    50.000,    -5.130,    16.000,   -10.000,1.05000,     0,   100.000,   0.00000,   1.00000,   0.00000,   0.00000,1.00000,1,  100.0,    50.000,     0.000,   1,1.0000
   323,'1 ',   355.000,    37.410,   150.000,   -25.000,1.05000,     0,   100.000,   0.00000,   1.00000,   0.00000,   0.00000,1.00000,1,  100.0,   355.000,   170.000,   1,1.0000
   323,'2 ',   355.000,    37.410,   150.000,   -25.000,1.05000,     0,   100.000,   0.00000,   1.00000,   0.00000,   0.00000,1.00000,1,  100.0,   355.000,   170.000,   1,1.0000
   324,'1 ',     0.000,     0.000,     0.000,     0.000,1.00000,     0,   100.000,   0.00000,   1.00000,   0.00000,   0.00000,1.00000,0,  100.0,    49.700,     0.000,   1,1.0000
   324,'2 ',     0.000,     0.000,     0.000,     0.000,1.00000,     0,   100.000,   0.00000,   1.00000,   0.00000,   0.00000,1.00000,0,  100.0,    51.600,     0.000,   1,1.0000
   324,'3 ',     0.000,     0.000,     0.000,     0.000,1.00000,     0,   100.000,   0.00000,   1.00000,   0.00000,   0.00000,1.00000,0,  100.0,    51.000,     0.000,   1,1.0000
 0 /End of Generator data, Begin Branch data
   101,    102,'1 ',   0.00300,   0.01400,   0.46100,  175.00,  175.00,  175.00,  0.00000,  0.00000,  0.00000,  0.00000,1,   3.00,   1,1.0000
   101,    103,'1 ',   0.05500,   0.21100,   0.05700,  175.00,  175.00,  175.00,  0.00000,  0.00000,  0.00000,  0.00000,1,  55.00,   1,1.0000
   101,    105,'1 ',   0.02200,   0.08500,   0.02300,  175.00,  175.00,  175.00,  0.00000,  0.00000,  0.00000,  0.00000,1,  22.00,   1,1.0000
   102,    104,'1 ',   0.03300,   0.12700,   0.03400,  175.00,  175.00,  175.00,  0.00000,  0.00000,  0.00000,  0.00000,1,  33.00,   1,1.0000
   102,    106,'1 ',   0.05000,   0.19200,   0.05200,  175.00,  175.00,  175.00,  0.00000,  0.00000,  0.00000,  0.00000,1,  50.00,   1,1.0000
   103,    109,'1 ',   0.03100,   0.11900,   0.03200,  175.00,  175.00,  175.00,  0.00000,  0.00000,  0.00000,  0.00000,1,  31.00,   1,1.0000
   104,    109,'1 ',   0.02700,   0.10400,   0.02800,  175.00,  175.00,  175.00,  0.00000,  0.00000,  0.00000,  0.00000,1,  27.00,   1,1.0000
   105,    110,'1 ',   0.02300,   0.08800,   0.02400,  175.00,  175.00,  175.00,  0.00000,  0.00000,  0.00000,  0.00000,1,  23.00,   1,1.0000
   106,    110,'1 ',   0.01400,   0.06100,   2.45900,  175.00,  175.00,  175.00,  0.00000,  0.00000,  0.00000,  0.00000,1,  16.00,   1,1.0000
   107,    108,'1 ',   0.01600,   0.06100,   0.01700,  175.00,  175.00,  175.00,  0.00000,  0.00000,  0.00000,  0.00000,1,  16.00,   1,1.0000
   107,    203,'1 ',   0.04200,   0.16100,   0.04400,  175.00,  175.00,  175.00,  0.00000,  0.00000,  0.00000,  0.00000,1,  42.00,   1,1.0000
   108,    109,'1 ',   0.04300,   0.16500,   0.04500,  175.00,  175.00,  175.00,  0.00000,  0.00000,  0.00000,  0.00000,1,  43.00,   1,1.0000
   108,    110,'1 ',   0.04300,   0.16500,   0.04500,  175.00,  175.00,  175.00,  0.00000,  0.00000,  0.00000,  0.00000,1,  43.00,   1,1.0000
   111,    113,'1 ',   0.00600,   0.04800,   0.10000,  500.00,  500.00,  500.00,  0.00000,  0.00000,  0.00000,  0.00000,1,  33.00,   1,1.0000
   111,    114,'1 ',   0.00500,   0.04200,   0.08800,  500.00,  500.00,  500.00,  0.00000,  0.00000,  0.00000,  0.00000,1,  29.00,   1,1.0000
   112,    113,'1 ',   0.00600,   0.04800,   0.10000,  500.00,  500.00,  500.00,  0.00000,  0.00000,  0.00000,  0.00000,1,  33.00,   1,1.0000
   112,    123,'1 ',   0.01200,   0.09700,   0.20300,  500.00,  500.00,  500.00,  0.00000,  0.00000,  0.00000,  0.00000,1,  67.00,   1,1.0000
   113,    123,'1 ',   0.01100,   0.08700,   0.18200,  500.00,  500.00,  500.00,  0.00000,  0.00000,  0.00000,  0.00000,1,  60.00,   1,1.0000
   113,    215,'1 ',   0.01000,   0.07500,   0.15800,  500.00,  500.00,  500.00,  0.00000,  0.00000,  0.00000,  0.00000,1,  52.00,   1,1.0000
   114,    116,'1 ',   0.00500,   0.05900,   0.08200,  500.00,  500.00,  500.00,  0.00000,  0.00000,  0.00000,  0.00000,1,  27.00,   1,1.0000
   115,    116,'1 ',   0.00200,   0.01700,   0.03600,  500.00,  500.00,  500.00,  0.00000,  0.00000,  0.00000,  0.00000,1,  12.00,   1,1.0000
   115,    121,'1 ',   0.00600,   0.04900,   0.10300,  500.00,  500.00,  500.00,  0.00000,  0.00000,  0.00000,  0.00000,1,  34.00,   1,1.0000
   115,    121,'2 ',   0.00600,   0.04900,   0.10300,  500.00,  500.00,  500.00,  0.00000,  0.00000,  0.00000,  0.00000,1,  34.00,   1,1.0000
   115,    124,'1 ',   0.00700,   0.05200,   0.10900,  500.00,  500.00,  500.00,  0.00000,  0.00000,  0.00000,  0.00000,1,  36.00,   1,1.0000
   116,    117,'1 ',   0.00300,   0.02600,   0.05500,  500.00,  500.00,  500.00,  0.00000,  0.00000,  0.00000,  0.00000,1,  18.00,   1,1.0000
   116,    119,'1 ',   0.00300,   0.02300,   0.04900,  500.00,  500.00,  500.00,  0.00000,  0.00000,  0.00000,  0.00000,1,  16.00,   1,1.0000
   117,    118,'1 ',   0.00200,   0.01400,   0.03000,  500.00,  500.00,  500.00,  0.00000,  0.00000,  0.00000,  0.00000,1,  10.00,   1,1.0000
   117,    122,'1 ',   0.01400,   0.10500,   0.22100,  500.00,  500.00,  500.00,  0.00000,  0.00000,  0.00000,  0.00000,1,  73.00,   1,1.0000
   118,    121,'1 ',   0.00300,   0.02600,   0.05500,  500.00,  500.00,  500.00,  0.00000,  0.00000,  0.00000,  0.00000,1,  18.00,   1,1.0000
   118,    121,'2 ',   0.00300,   0.02600,   0.05500,  500.00,  500.00,  500.00,  0.00000,  0.00000,  0.00000,  0.00000,1,  18.00,   1,1.0000
   119,    120,'1 ',   0.00500,   0.04000,   0.08300,  500.00,  500.00,  500.00,  0.00000,  0.00000,  0.00000,  0.00000,1,  27.50,   1,1.0000
   119,    120,'2 ',   0.00500,   0.04000,   0.08300,  500.00,  500.00,  500.00,  0.00000,  0.00000,  0.00000,  0.00000,1,  27.50,   1,1.0000
   120,    123,'1 ',   0.00300,   0.02200,   0.04600,  500.00,  500.00,  500.00,  0.00000,  0.00000,  0.00000,  0.00000,1,  15.00,   1,1.0000
   120,    123,'2 ',   0.00300,   0.02200,   0.04600,  500.00,  500.00,  500.00,  0.00000,  0.00000,  0.00000,  0.00000,1,  15.00,   1,1.0000
   121,    122,'1 ',   0.00900,   0.06800,   0.14200,  500.00,  500.00,  500.00,  0.00000,  0.00000,  0.00000,  0.00000,1,  47.00,   1,1.0000
   121,   -325,'1 ',   0.01200,   0.09700,   0.20300,  500.00,  500.00,  500.00,  0.00000,  0.00000,  0.00000,  0.00000,1,  67.00,   1,1.0000
   123,    217,'1 ',   0.01000,   0.07400,   0.15500,  500.00,  500.00,  500.00,  0.00000,  0.00000,  0.00000,  0.00000,1,  51.00,   1,1.0000
   201,    202,'1 ',   0.00300,   0.01400,   0.46100,  175.00,  175.00,  175.00,  0.00000,  0.00000,  0.00000,  0.00000,1,   3.00,   1,1.0000
   201,    203,'1 ',   0.05500,   0.21100,   0.05700,  175.00,  175.00,  175.00,  0.00000,  0.00000,  0.00000,  0.00000,1,  55.00,   1,1.0000
   201,    205,'1 ',   0.02200,   0.08500,   0.02300,  175.00,  175.00,  175.00,  0.00000,  0.00000,  0.00000,  0.00000,1,  22.00,   1,1.0000
   202,    204,'1 ',   0.03300,   0.12700,   0.03400,  175.00,  175.00,  175.00,  0.00000,  0.00000,  0.00000,  0.00000,1,  33.00,   1,1.0000
   202,    206,'1 ',   0.05000,   0.19200,   0.05200,  175.00,  175.00,  175.00,  0.00000,  0.00000,  0.00000,  0.00000,1,  50.00,   1,1.0000
   203,    209,'1 ',   0.03100,   0.11900,   0.03200,  175.00,  175.00,  175.00,  0.00000,  0.00000,  0.00000,  0.00000,1,  31.00,   1,1.0000
   204,    209,'1 ',   0.02700,   0.10400,   0.02800,  175.00,  175.00,  175.00,  0.00000,  0.00000,  0.00000,  0.00000,1,  27.00,   1,1.0000
   205,    210,'1 ',   0.02300,   0.08800,   0.02400,  175.00,  175.00,  175.00,  0.00000,  0.00000,  0.00000,  0.00000,1,  23.00,   1,1.0000
   206,    210,'1 ',   0.01400,   0.06100,   2.45900,  175.00,  175.00,  175.00,  0.00000,  0.00000,  0.00000,  0.00000,1,  16.00,   1,1.0000
   207,    208,'1 ',   0.01600,   0.06100,   0.01700,  175.00,  175.00,  175.00,  0.00000,  0.00000,  0.00000,  0.00000,1,  16.00,   1,1.0000
   208,    209,'1 ',   0.04300,   0.16500,   0.04500,  175.00,  175.00,  175.00,  0.00000,  0.00000,  0.00000,  0.00000,1,  43.00,   1,1.0000
   208,    210,'1 ',   0.04300,   0.16500,   0.04500,  175.00,  175.00,  175.00,  0.00000,  0.00000,  0.00000,  0.00000,1,  43.00,   1,1.0000
   211,    213,'1 ',   0.00600,   0.04800,   0.10000,  500.00,  500.00,  500.00,  0.00000,  0.00000,  0.00000,  0.00000,1,  33.00,   1,1.0000
   211,    214,'1 ',   0.00500,   0.04200,   0.08800,  500.00,  500.00,  500.00,  0.00000,  0.00000,  0.00000,  0.00000,1,  29.00,   1,1.0000
   212,    213,'1 ',   0.00600,   0.04800,   0.10000,  500.00,  500.00,  500.00,  0.00000,  0.00000,  0.00000,  0.00000,1,  33.00,   1,1.0000
   212,    223,'1 ',   0.01200,   0.09700,   0.20300,  500.00,  500.00,  500.00,  0.00000,  0.00000,  0.00000,  0.00000,1,  67.00,   1,1.0000
   213,    223,'1 ',   0.01100,   0.08700,   0.18200,  500.00,  500.00,  500.00,  0.00000,  0.00000,  0.00000,  0.00000,1,  60.00,   1,1.0000
   214,    216,'1 ',   0.00500,   0.05900,   0.08200,  500.00,  500.00,  500.00,  0.00000,  0.00000,  0.00000,  0.00000,1,  27.00,   1,1.0000
   215,    216,'1 ',   0.00200,   0.01700,   0.03600,  500.00,  500.00,  500.00,  0.00000,  0.00000,  0.00000,  0.00000,1,  12.00,   1,1.0000
   215,    221,'1 ',   0.00600,   0.04900,   0.10300,  500.00,  500.00,  500.00,  0.00000,  0.00000,  0.00000,  0.00000,1,  34.00,   1,1.0000
   215,    221,'2 ',   0.00600,   0.04900,   0.10300,  500.00,  500.00,  500.00,  0.00000,  0.00000,  0.00000,  0.00000,1,  34.00,   1,1.0000
   215,    224,'1 ',   0.00700,   0.05200,   0.10900,  500.00,  500.00,  500.00,  0.00000,  0.00000,  0.00000,  0.00000,1,  36.00,   1,1.0000
   216,    217,'1 ',   0.00300,   0.02600,   0.05500,  500.00,  500.00,  500.00,  0.00000,  0.00000,  0.00000,  0.00000,1,  18.00,   1,1.0000
   216,    219,'1 ',   0.00300,   0.02300,   0.04900,  500.00,  500.00,  500.00,  0.00000,  0.00000,  0.00000,  0.00000,1,  16.00,   1,1.0000
   217,    218,'1 ',   0.00200,   0.01400,   0.03000,  500.00,  500.00,  500.00,  0.00000,  0.00000,  0.00000,  0.00000,1,  10.00,   1,1.0000
   217,    222,'1 ',   0.01400,   0.10500,   0.22100,  500.00,  500.00,  500.00,  0.00000,  0.00000,  0.00000,  0.00000,1,  73.00,   1,1.0000
   218,    221,'1 ',   0.00300,   0.02600,   0.05500,  500.00,  500.00,  500.00,  0.00000,  0.00000,  0.00000,  0.00000,1,  18.00,   1,1.0000
   218,    221,'2 ',   0.00300,   0.02600,   0.05500,  500.00,  500.00,  500.00,  0.00000,  0.00000,  0.00000,  0.00000,1,  18.00,   1,1.0000
   219,    220,'1 ',   0.00500,   0.04000,   0.08300,  500.00,  500.00,  500.00,  0.00000,  0.00000,  0.00000,  0.00000,1,  27.50,   1,1.0000
   219,    220,'2 ',   0.00500,   0.04000,   0.08300,  500.00,  500.00,  500.00,  0.00000,  0.00000,  0.00000,  0.00000,1,  27.50,   1,1.0000
   220,    223,'1 ',   0.00300,   0.02200,   0.04600,  500.00,  500.00,  500.00,  0.00000,  0.00000,  0.00000,  0.00000,1,  15.00,   1,1.0000
   220,    223,'2 ',   0.00300,   0.02200,   0.04600,  500.00,  500.00,  500.00,  0.00000,  0.00000,  0.00000,  0.00000,1,  15.00,   1,1.0000
   221,    222,'1 ',   0.00900,   0.06800,   0.14200,  500.00,  500.00,  500.00,  0.00000,  0.00000,  0.00000,  0.00000,1,  47.00,   1,1.0000
   223,   -318,'1 ',   0.01300,   0.10400,   0.21800,  500.00,  500.00,  500.00,  0.00000,  0.00000,  0.00000,  0.00000,1,  72.00,   1,1.0000
   301,    302,'1 ',   0.00300,   0.01400,   0.46100,  175.00,  175.00,  175.00,  0.00000,  0.00000,  0.00000,  0.00000,1,   3.00,   1,1.0000
   301,    303,'1 ',   0.05500,   0.21100,   0.05700,  175.00,  175.00,  175.00,  0.00000,  0.00000,  0.00000,  0.00000,1,  55.00,   1,1.0000
   301,    305,'1 ',   0.02200,   0.08500,   0.02300,  175.00,  175.00,  175.00,  0.00000,  0.00000,  0.00000,  0.00000,1,  22.00,   1,1.0000
   302,    304,'1 ',   0.03300,   0.12700,   0.03400,  175.00,  175.00,  175.00,  0.00000,  0.00000,  0.00000,  0.00000,1,  33.00,   1,1.0000
   302,    306,'1 ',   0.05000,   0.19200,   0.05200,  175.00,  175.00,  175.00,  0.00000,  0.00000,  0.00000,  0.00000,1,  50.00,   1,1.0000
   303,    309,'1 ',   0.03100,   0.11900,   0.03200,  175.00,  175.00,  175.00,  0.00000,  0.00000,  0.00000,  0.00000,1,  31.00,   1,1.0000
   304,    309,'1 ',   0.02700,   0.10400,   0.02800,  175.00,  175.00,  175.00,  0.00000,  0.00000,  0.00000,  0.00000,1,  27.00,   1,1.0000
   305,    310,'1 ',   0.02300,   0.08800,   0.02400,  175.00,  175.00,  175.00,  0.00000,  0.00000,  0.00000,  0.00000,1,  23.00,   1,1.0000
   306,    310,'1 ',   0.01400,   0.06100,   2.45900,  175.00,  175.00,  175.00,  0.00000,  0.00000,  0.00000,  0.00000,1,  16.00,   1,1.0000
   307,    308,'1 ',   0.01600,   0.06100,   0.01700,  175.00,  175.00,  175.00,  0.00000,  0.00000,  0.00000,  0.00000,1,  16.00,   1,1.0000
   308,    309,'1 ',   0.04300,   0.16500,   0.04500,  175.00,  175.00,  175.00,  0.00000,  0.00000,  0.00000,  0.00000,1,  43.00,   1,1.0000
   308,    310,'1 ',   0.04300,   0.16500,   0.04500,  175.00,  175.00,  175.00,  0.00000,  0.00000,  0.00000,  0.00000,1,  43.00,   1,1.0000
   311,    313,'1 ',   0.00600,   0.04800,   0.10000,  500.00,  500.00,  500.00,  0.00000,  0.00000,  0.00000,  0.00000,1,  33.00,   1,1.0000
   311,    314,'1 ',   0.00500,   0.04200,   0.08800,  500.00,  500.00,  500.00,  0.00000,  0.00000,  0.00000,  0.00000,1,  29.00,   1,1.0000
   312,    313,'1 ',   0.00600,   0.04800,   0.10000,  500.00,  500.00,  500.00,  0.00000,  0.00000,  0.00000,  0.00000,1,  33.00,   1,1.0000
   312,    323,'1 ',   0.01200,   0.09700,   0.20300,  500.00,  500.00,  500.00,  0.00000,  0.00000,  0.00000,  0.00000,1,  67.00,   1,1.0000
   313,    323,'1 ',   0.01100,   0.08700,   0.18200,  500.00,  500.00,  500.00,  0.00000,  0.00000,  0.00000,  0.00000,1,  60.00,   1,1.0000
   314,    316,'1 ',   0.00500,   0.05900,   0.08200,  500.00,  500.00,  500.00,  0.00000,  0.00000,  0.00000,  0.00000,1,  27.00,   1,1.0000
   315,    316,'1 ',   0.00200,   0.01700,   0.03600,  500.00,  500.00,  500.00,  0.00000,  0.00000,  0.00000,  0.00000,1,  12.00,   1,1.0000
   315,    321,'1 ',   0.00600,   0.04900,   0.10300,  500.00,  500.00,  500.00,  0.00000,  0.00000,  0.00000,  0.00000,1,  34.00,   1,1.0000
   315,    321,'2 ',   0.00600,   0.04900,   0.10300,  500.00,  500.00,  500.00,  0.00000,  0.00000,  0.00000,  0.00000,1,  34.00,   1,1.0000
   315,    324,'1 ',   0.00700,   0.05200,   0.10900,  500.00,  500.00,  500.00,  0.00000,  0.00000,  0.00000,  0.00000,1,  36.00,   1,1.0000
   316,    317,'1 ',   0.00300,   0.02600,   0.05500,  500.00,  500.00,  500.00,  0.00000,  0.00000,  0.00000,  0.00000,1,  18.00,   1,1.0000
   316,    319,'1 ',   0.00300,   0.02300,   0.04900,  500.00,  500.00,  500.00,  0.00000,  0.00000,  0.00000,  0.00000,1,  16.00,   1,1.0000
   317,    318,'1 ',   0.00200,   0.01400,   0.03000,  500.00,  500.00,  500.00,  0.00000,  0.00000,  0.00000,  0.00000,1,  10.00,   1,1.0000
   317,    322,'1 ',   0.01400,   0.10500,   0.22100,  500.00,  500.00,  500.00,  0.00000,  0.00000,  0.00000,  0.00000,1,  73.00,   1,1.0000
   318,    321,'1 ',   0.00300,   0.02600,   0.05500,  500.00,  500.00,  500.00,  0.00000,  0.00000,  0.00000,  0.00000,1,  18.00,   1,1.0000
   318,    321,'2 ',   0.00300,   0.02600,   0.05500,  500.00,  500.00,  500.00,  0.00000,  0.00000,  0.00000,  0.00000,1,  18.00,   1,1.0000
   319,    320,'1 ',   0.00500,   0.04000,   0.08300,  500.00,  500.00,  500.00,  0.00000,  0.00000,  0.00000,  0.00000,1,  27.50,   1,1.0000
   319,    320,'2 ',   0.00500,   0.04000,   0.08300,  500.00,  500.00,  500.00,  0.00000,  0.00000,  0.00000,  0.00000,1,  27.50,   1,1.0000
   320,    323,'1 ',   0.00300,   0.02200,   0.04600,  500.00,  500.00,  500.00,  0.00000,  0.00000,  0.00000,  0.00000,1,  15.00,   1,1.0000
   320,    323,'2 ',   0.00300,   0.02200,   0.04600,  500.00,  500.00,  500.00,  0.00000,  0.00000,  0.00000,  0.00000,1,  15.00,   1,1.0000
   321,    322,'1 ',   0.00900,   0.06800,   0.14200,  500.00,  500.00,  500.00,  0.00000,  0.00000,  0.00000,  0.00000,1,  47.00,   1,1.0000
   323,    325,'1 ',   0.00000,   0.00900,   0.00000,  722.00,  722.00,  722.00,  0.00000,  0.00000,  0.00000,  0.00000,1,   0.00,   1,1.0000
 0 /End of Branch data, Begin Transformer data
   103,   124,     0,'1 ',1,1,1,   0.00000,   0.00000,2,'                                        ',1,   1,1.0000
   0.00200,   0.08400,   100.00
1.01753, 138.000,   0.000,   400.00,   400.00,   400.00,-1,      0, 1.50000, 0.51000, 1.50000, 0.51000, 159, 0, 0.00000, 0.00000
1.00000, 230.000
   109,   111,     0,'1 ',1,1,1,   0.00000,   0.00000,2,'                                        ',1,   1,1.0000
   0.00200,   0.08400,   100.00
1.03006, 138.000,   0.000,   400.00,   400.00,   400.00,-1,      0, 1.50000, 0.51000, 1.50000, 0.51000, 159, 0, 0.00000, 0.00000
1.00000, 230.000
   109,   112,     0,'1 ',1,1,1,   0.00000,   0.00000,2,'                                        ',1,   1,1.0000
   0.00200,   0.08400,   100.00
1.03006, 138.000,   0.000,   400.00,   400.00,   400.00,-1,      0, 1.50000, 0.51000, 1.50000, 0.51000, 159, 0, 0.00000, 0.00000
1.00000, 230.000
   110,   111,     0,'1 ',1,1,1,   0.00000,   0.00000,2,'                                        ',1,   1,1.0000
   0.00200,   0.08400,   100.00
1.01753, 138.000,   0.000,   400.00,   400.00,   400.00,-1,      0, 1.50000, 0.51000, 1.50000, 0.51000, 159, 0, 0.00000, 0.00000
1.00000, 230.000
   110,   112,     0,'1 ',1,1,1,   0.00000,   0.00000,2,'                                        ',1,   1,1.0000
   0.00200,   0.08400,   100.00
1.01753, 138.000,   0.000,   400.00,   400.00,   400.00,-1,      0, 1.50000, 0.51000, 1.50000, 0.51000, 159, 0, 0.00000, 0.00000
1.00000, 230.000
   203,   224,     0,'1 ',1,1,1,   0.00000,   0.00000,2,'                                        ',1,   1,1.0000
   0.00200,   0.08400,   100.00
1.01753, 138.000,   0.000,   400.00,   400.00,   400.00,-1,      0, 1.50000, 0.51000, 1.50000, 0.51000, 159, 0, 0.00000, 0.00000
1.00000, 230.000
   209,   211,     0,'1 ',1,1,1,   0.00000,   0.00000,2,'                                        ',1,   1,1.0000
   0.00200,   0.08400,   100.00
1.03006, 138.000,   0.000,   400.00,   400.00,   400.00,-1,      0, 1.50000, 0.51000, 1.50000, 0.51000, 159, 0, 0.00000, 0.00000
1.00000, 230.000
   209,   212,     0,'1 ',1,1,1,   0.00000,   0.00000,2,'                                        ',1,   1,1.0000
   0.00200,   0.08400,   100.00
1.03006, 138.000,   0.000,   400.00,   400.00,   400.00,-1,      0, 1.50000, 0.51000, 1.50000, 0.51000, 159, 0, 0.00000, 0.00000
1.00000, 230.000
   210,   211,     0,'1 ',1,1,1,   0.00000,   0.00000,2,'                                        ',1,   1,1.0000
   0.00200,   0.08400,   100.00
1.01753, 138.000,   0.000,   400.00,   400.00,   400.00,-1,      0, 1.50000, 0.51000, 1.50000, 0.51000, 159, 0, 0.00000, 0.00000
1.00000, 230.000
   210,   212,     0,'1 ',1,1,1,   0.00000,   0.00000,2,'                                        ',1,   1,1.0000
   0.00200,   0.08400,   100.00
1.01753, 138.000,   0.000,   400.00,   400.00,   400.00,-1,      0, 1.50000, 0.51000, 1.50000, 0.51000, 159, 0, 0.00000, 0.00000
1.00000, 230.000
   303,   324,     0,'1 ',1,1,1,   0.00000,   0.00000,2,'                                        ',1,   1,1.0000
   0.00200,   0.08400,   100.00
1.01753, 138.000,   0.000,   400.00,   400.00,   400.00,-1,      0, 1.50000, 0.51000, 1.50000, 0.51000, 159, 0, 0.00000, 0.00000
1.00000, 230.000
   309,   311,     0,'1 ',1,1,1,   0.00000,   0.00000,2,'                                        ',1,   1,1.0000
   0.00200,   0.08400,   100.00
1.03006, 138.000,   0.000,   400.00,   400.00,   400.00,-1,      0, 1.50000, 0.51000, 1.50000, 0.51000, 159, 0, 0.00000, 0.00000
1.00000, 230.000
   309,   312,     0,'1 ',1,1,1,   0.00000,   0.00000,2,'                                        ',1,   1,1.0000
   0.00200,   0.08400,   100.00
1.03006, 138.000,   0.000,   400.00,   400.00,   400.00,-1,      0, 1.50000, 0.51000, 1.50000, 0.51000, 159, 0, 0.00000, 0.00000
1.00000, 230.000
   310,   311,     0,'1 ',1,1,1,   0.00000,   0.00000,2,'                                        ',1,   1,1.0000
   0.00200,   0.08400,   100.00
1.01753, 138.000,   0.000,   400.00,   400.00,   400.00,-1,      0, 1.50000, 0.51000, 1.50000, 0.51000, 159, 0, 0.00000, 0.00000
1.00000, 230.000
   310,   312,     0,'1 ',1,1,1,   0.00000,   0.00000,2,'                                        ',1,   1,1.0000
   0.00200,   0.08400,   100.00
1.01753, 138.000,   0.000,   400.00,   400.00,   400.00,-1,      0, 1.50000, 0.51000, 1.50000, 0.51000, 159, 0, 0.00000, 0.00000
1.00000, 230.000
 0 /End of Transformer data, Begin Area interchange data
   1,     0,     0.000,     1.000,'1           '
   2,     0,     0.000,     1.000,'2           '
   3,     0,     0.000,     1.000,'3           '
 0 /End of Area interchange data, Begin Two-terminal dc line data
 0 /End of Two-terminal dc line data, Begin VSC dc line data
 0 /End of VSC dc line data, Begin Switched shunt data
   106,0,1.05000,0.95000,     0,  100.0,'            ', -100.00, 1,-100.00
   206,0,1.05000,0.95000,     0,  100.0,'            ', -100.00, 1,-100.00
   306,0,1.05000,0.95000,     0,  100.0,'            ', -100.00, 1,-100.00
...